6hm2_ligand
     RDKit          3D

 20 20  0  0  0  0  0  0  0  0999 V2000
   18.8002  -29.9369   19.5793 O   0  0  0  0  0  0  0  0  0  0  0  0
   18.4025  -28.7248   19.5810 C   0  0  0  0  0  0  0  0  0  0  0  0
   17.5599  -28.1700   18.5009 C   0  0  0  0  0  0  0  0  0  0  0  0
   17.6306  -26.6815   18.7470 C   0  0  0  0  0  0  0  0  0  0  0  0
   17.9169  -26.5570   20.2440 C   0  0  1  0  0  0  0  0  0  0  0  0
   16.5866  -26.5202   20.8956 C   0  0  0  0  0  0  0  0  0  0  0  0
   15.7727  -25.4304   21.0157 O   0  0  0  0  0  0  0  0  0  0  0  0
   18.6812  -27.7428   20.5655 N   0  0  0  0  0  0  0  0  0  0  0  0
   19.5638  -27.8831   21.6787 C   0  0  0  0  0  0  0  0  0  0  0  0
   20.7605  -28.7733   21.4290 C   0  0  1  0  0  0  0  0  0  0  0  0
   21.0838  -28.6712   20.0593 O   0  0  0  0  0  0  0  0  0  0  0  0
   21.9319  -28.0844   22.1468 C   0  0  1  0  0  0  0  0  0  0  0  0
   21.5796  -27.6849   23.4161 O   0  0  0  0  0  0  0  0  0  0  0  0
   23.1553  -28.9622   22.1264 C   0  0  2  0  0  0  0  0  0  0  0  0
   23.2274  -29.7035   20.9523 O   0  0  0  0  0  0  0  0  0  0  0  0
   23.2088  -29.9147   23.2863 C   0  0  2  0  0  0  0  0  0  0  0  0
   23.1064  -29.2688   24.5151 O   0  0  0  0  0  0  0  0  0  0  0  0
   24.5268  -30.6592   23.2905 C   0  0  0  0  0  0  0  0  0  0  0  0
   25.2362  -30.4338   24.4739 O   0  0  0  0  0  0  0  0  0  0  0  0
   16.1805  -27.6118   21.3829 O   0  0  0  0  0  0  0  0  0  0  0  0
  1  2  2  0
  3  2  1  1
  2  8  1  0
  4  3  1  1
  4  5  1  0
  5  6  1  1
  5  8  1  0
  6  7  1  0
  6 20  2  0
  9  8  1  1
  9 10  1  0
 10 11  1  6
 10 12  1  0
 12 13  1  1
 12 14  1  0
 14 15  1  6
 14 16  1  0
 16 17  1  1
 16 18  1  0
 18 19  1  6
M  END
$$$$
